<types>
    <type id="highway" numLanes="6" speed="30.00"/>
</types>
